/*--------------------------------*- C++ -*----------------------------------*\
  =========                 |
  \\      /  F ield         | OpenFOAM: The Open Source CFD Toolbox
   \\    /   O peration     | Website:  https://openfoam.org
    \\  /    A nd           | Version:  11
     \\/     M anipulation  |
\*---------------------------------------------------------------------------*/
FoamFile
{
    format      ascii;
    class       dictionary;
    object      mapFieldsDict;
}
// * * * * * * * * * * * * * * * * * * * * * * * * * * * * * * * * * * * * * //

// Map data from source patch to target coincident patch
patchMap
(
    wall wall
);

// Target patches whose field values are mapped from the internal source mesh
cuttingPatches
(
//     <targetPatch1>
//     <targetPatch2>
);

// ************************************************************************* //
